%chk=int_taz_prx_N1_P_c1_nbo_ster.chk
%nproc=1
%mem=1GB
# m062x/6-31+g(d,p) pop=nbo6read nosymm

nbo estérico int taz prx ataque do N1 ao P (com interação O-H)

0 1
 P                  0.05969900   -0.61430500    0.52452700
 O                 -1.08757400   -1.29639000   -0.30827200
 O                  1.31444000   -1.10872100   -0.28077900
 C                 -2.48305200   -1.01492800    0.03366500
 C                 -3.34341400   -1.83211400   -0.89570000
 H                 -2.65047100    0.05859900   -0.09759300
 H                 -2.63649200   -1.28711300    1.08040500
 H                 -4.39464200   -1.63897500   -0.66694900
 H                 -3.15633400   -1.55688800   -1.93652500
 H                 -3.14779300   -2.89906800   -0.76398500
 C                  2.65694100   -0.75675300    0.18795600
 C                  3.62839000   -1.20282000   -0.87441400
 H                  2.82025200   -1.26786800    1.13883100
 H                  2.69455400    0.32599300    0.34016400
 H                  4.64411200   -0.96279500   -0.54972300
 H                  3.55855800   -2.28187800   -1.03234400
 H                  3.43184900   -0.68697500   -1.81751500
 O                  0.04967700   -0.74746400    1.99744500
 N                 -0.06490300    1.07107200    0.14710800
 C                 -0.36243300    2.10621300    0.97844700
 N                  0.04714100    1.50323200   -1.12730200
 H                 -0.49852600    1.97453100    2.04120500
 C                 -0.41598700    3.19449900    0.15048800
 N                 -0.15921700    2.77785800   -1.12516500
 H                 -0.61672000    4.22789700    0.38383100

$nbo steric $end




