%nproc=4
%mem=2GB
# m062x/6-31+g(d,p) opt freq=noraman scrf=(smd, solvent=water)

opt int taz prx ataque do N1 ao P (com interação O-H)

0 1
 P                  1.86255700    0.15670200   -0.26646300
 O                  1.10118000   -0.58823600    0.89740500
 O                  2.24413200    1.51343000    0.42582600
 C                  0.90846400   -2.03709900    0.80918600
 C                 -0.07433500   -2.42382800    1.88565500
 H                  1.88551000   -2.51545700    0.95338900
 H                  0.52603400   -2.27883100   -0.19077100
 H                 -0.21035700   -3.50270900    1.86951100
 H                  0.29262900   -2.13706100    2.86912300
 H                 -1.03672100   -1.95147000    1.71122200
 C                  2.48282400    2.70231800   -0.39315600
 C                  2.75743600    3.84118700    0.55766900
 H                  1.59094000    2.87754800   -1.00105300
 H                  3.34084300    2.49830300   -1.04283900
 H                  2.95534500    4.74630200   -0.02291400
 H                  1.89064300    4.02121700    1.20311100
 H                  3.63205600    3.62561100    1.18069600
 O                  1.30751500    0.15734000   -1.63930400
 N                  3.36835700   -0.70535800   -0.34723000
 C                  3.78925600   -1.55819000   -1.31848300
 N                  4.20363700   -0.74227600    0.70989800
 H                  3.25565000   -1.68774700   -2.24764000
 C                  4.93843800   -2.10302300   -0.81084300
 N                  5.15234600   -1.57508100    0.42983600
 H                  5.61206900   -2.82227500   -1.24894900

