%nproc=4
%mem=2GB
# m062x/6-31+g(d,p) opt=(modredundant,noeigentest) scrf=(smd,solvent=water)	

scan taz- e paraoxon ataque do LG (taz- c1 e Lg c1)

-1 1
 P                 -0.92604271    0.66643602    0.17980875
 O                 -1.18662971   -0.71086798   -0.54884525
 O                  0.89983503    1.66188946   -1.20772247
 O                 -2.16626571    1.55331802   -0.23320125
 C                 -2.12348471   -1.66317498    0.04569375
 C                 -2.21353971   -2.84417198   -0.88728625
 H                 -3.08915471   -1.16357598    0.16196875
 H                 -1.73603371   -1.94689398    1.02707375
 H                 -2.90369371   -3.57993198   -0.46637725
 H                 -2.58733271   -2.53538498   -1.86668325
 H                 -1.23440871   -3.31447498   -1.00860925
 C                 -2.32875771    2.87390502    0.37025575
 C                 -3.55207971    3.50280902   -0.24737525
 H                 -1.42563971    3.45500702    0.16312075
 H                 -2.43912171    2.73967502    1.44869475
 H                 -3.70430571    4.49286802    0.19019275
 H                 -3.42649371    3.61424102   -1.32723425
 H                 -4.43869871    2.89498102   -0.04965525
 O                  0.16776629    0.92861915    1.17944114
 C                  2.24645303    1.44747446   -0.98059347
 C                  3.09562903    2.49539346   -1.33167247
 C                  2.72971103    0.24327446   -0.46970547
 C                  4.46338703    2.34398146   -1.16503547
 H                  2.67604903    3.41279546   -1.72848047
 C                  4.09875903    0.09109246   -0.29544847
 H                  2.05799003   -0.56985154   -0.21650747
 C                  4.93883103    1.14267046   -0.64582847
 H                  5.14639703    3.14231246   -1.42796147
 H                  4.50445903   -0.83186254    0.10026253
 N                  6.37722903    0.97915846   -0.46389747
 O                  7.11157603    1.90666546   -0.77446547
 O                  6.79002103   -0.07840254   -0.00867447
 N                 -2.04273695    0.04816055    1.30263084
 C                 -1.80850296   -0.20798192    2.60821360
 N                 -3.31129079   -0.27399934    1.05955041
 H                 -0.84443547   -0.03048692    3.06344030
 C                 -2.98507996   -0.69914316    3.15068728
 N                 -3.90447997   -0.72904470    2.16135912
 H                 -3.21523061   -1.01981511    4.15681739

B 1 3 S 10 -0.100000







