! xTB2 NEB-TS NumFreq IRC

*xyzfile +1 1 react.xyz

%cpcm
 smd true
 smdsolvent "water"
end

%neb
 neb_ts_xyzfile "ts.xyz"
 neb_end_xyzfile "prod.xyz"
 nimages 29
 preopt_ends true
end

%geom
 ts_mode
  {B 12 23}
 end
 ts_active_atoms
  {3 7 12 14 15 22 23 27}
 end
 maxiter 256
end

%irc
 de_init_displ 1.0
 tolrmsg 3e-4
 tolmaxg 9e-4
 maxiter 256
end

%pal
 nprocs 2
end
