%nproc=4
%mem=2GB
# m062x/6-31+g(d,p) irc=(maxpoints=100,calcfc,recorrect=never) scrf=(smd,solvent=water)

irc fwd taz- e paraoxon ataque do N1 ao P(taz- c1 e Lg c1)

-1 1
 P                  1.56040000    0.25985600   -0.24646000
 O                  0.93483000   -0.61524900    0.92558300
 O                 -0.32005500    1.44047700    0.10678200
 O                  2.14883200    1.56277300    0.43880300
 C                  0.98418600   -2.07145800    0.87236500
 C                 -0.03662400   -2.58640700    1.85700400
 H                  1.99679300   -2.38898200    1.13666300
 H                  0.75810700   -2.39775200   -0.14814000
 H                 -0.01265300   -3.67940200    1.85774900
 H                  0.19087900   -2.23233800    2.86588000
 H                 -1.04208600   -2.25753400    1.58043700
 C                  2.36043800    2.74570200   -0.38321800
 C                  2.80131500    3.85514200    0.53913900
 H                  1.42151800    2.98667600   -0.88729000
 H                  3.12596900    2.51101100   -1.12888200
 H                  2.97979600    4.76025400   -0.04725500
 H                  2.02735000    4.06671700    1.28156100
 H                  3.72692000    3.58515600    1.05408200
 O                  1.16232400    0.17681200   -1.68006900
 C                 -1.51147100    0.95805700    0.01013800
 C                 -2.62912700    1.73758000    0.45446900
 C                 -1.79531300   -0.33946900   -0.52708300
 C                 -3.91647700    1.26429500    0.37972700
 H                 -2.42966700    2.72404600    0.86130000
 C                 -3.08552300   -0.81313400   -0.60134100
 H                 -0.98104400   -0.95512100   -0.89104500
 C                 -4.15043800   -0.01790800   -0.14839400
 H                 -4.74855900    1.86779400    0.72443200
 H                 -3.28396600   -1.79722400   -1.01096600
 N                 -5.47770100   -0.51248600   -0.22735600
 O                 -6.41239700    0.19632800    0.16440400
 O                 -5.67771000   -1.64349100   -0.68618500
 N                  3.13143700   -0.62459600   -0.33767700
 C                  3.55375400   -1.46751700   -1.30996200
 N                  3.97668700   -0.65323800    0.70078600
 H                  3.01226500   -1.60380100   -2.23299300
 C                  4.71911500   -2.00434000   -0.81983000
 N                  4.94211600   -1.47784500    0.41544300
 H                  5.39500700   -2.71463100   -1.26964200









